@<TRIPOS>MOLECULE

88 89 1
SMALL
USER_CHARGES
@<TRIPOS>ATOM
1	C1    -0.3534     7.7982     4.1453	C.3	1	noname	-0.0401
2	C2    -0.4632     9.1182     3.2151	C.3	1	noname	-0.0142
3	C3    -1.0501     8.5433     1.8627	C.3	1	noname	0.0360
4	C4    -0.7943     7.0079     1.9418	C.3	1	noname	-0.0375
5	C5     0.1463     6.7009     3.1322	C.3	1	noname	-0.0222
6	C6    -1.6550     2.3948     2.9959	C.3	1	noname	0.0360
7	C7    -0.2584     2.9197     3.4708	C.3	1	noname	-0.0139
8	C8     0.7091     1.8026     3.0384	C.3	1	noname	-0.0401
9	C9    -0.0460     0.4992     3.3958	C.3	1	noname	-0.0225
10	C10    -1.5577     0.8700     3.2953	C.3	1	noname	-0.0376
11	C11    -0.0358     5.3581     3.6742	C.2	1	noname	-0.0849
12	C12     0.0979     4.2364     2.9457	C.2	1	noname	-0.0847
13	C13    -2.5329     8.9073     1.4363	C.3	1	noname	0.3197
14	C14    -3.0883     8.2297     0.1166	C.3	1	noname	0.3782
15	C15    -4.4449     8.7657    -0.4996	C.3	1	noname	0.3842
16	C16    -2.8865     3.1647     3.6149	C.3	1	noname	0.3197
17	C17    -4.3441     2.7059     3.2312	C.3	1	noname	0.3782
18	C18    -5.5270     3.3202     4.0879	C.3	1	noname	0.3842
19	C19     0.3782    -0.6507     2.6019	C.2	1	noname	-0.0934
20	C20    -1.1741    10.3104     3.7808	C.2	1	noname	-0.0931
21	C21    -0.9274    11.5765     3.4229	C.2	1	noname	-0.0977
22	C22    -0.1106    -1.8824     2.7855	C.2	1	noname	-0.0978
23	H1    -1.3349     7.5570     4.5733	H	1	noname	0.0278
24	H2     0.3698     7.9531     4.9501	H	1	noname	0.0278
25	H3     0.5531     9.5292     2.9311	H	1	noname	0.0351
26	H4    -0.4130     8.9240     1.0543	H	1	noname	0.0372
27	H5    -1.7357     6.4927     2.1199	H	1	noname	0.0278
28	H6    -0.3759     6.6316     1.0039	H	1	noname	0.0278
29	H7     1.2081     6.7803     2.7641	H	1	noname	0.0346
30	H8    -1.7144     2.5049     1.9052	H	1	noname	0.0372
31	H9    -0.2362     2.9396     4.5682	H	1	noname	0.0351
32	H10     0.8994     1.8660     1.9611	H	1	noname	0.0278
33	H11     1.6620     1.8692     3.5707	H	1	noname	0.0278
34	H12     0.1817     0.2708     4.4446	H	1	noname	0.0346
35	H13    -2.0668     0.3041     2.5095	H	1	noname	0.0278
36	H14    -2.0451     0.6353     4.2458	H	1	noname	0.0278
37	H15    -0.3214     5.2715     4.6236	H	1	noname	0.0575
38	H16     0.4015     4.3048     2.0010	H	1	noname	0.0575
39	F1    -2.5559    10.2663     1.2645	F	1	noname	-0.1992
40	F2    -3.3833     8.6282     2.4845	F	1	noname	-0.1992
41	F3    -3.3125     6.8924     0.3752	F	1	noname	-0.1925
42	F4    -2.1078     8.1983    -0.8448	F	1	noname	-0.1925
43	F5    -4.8840     7.8625    -1.4491	F	1	noname	-0.1922
44	F6    -5.4088     8.6621     0.4855	F	1	noname	-0.1922
45	F7    -2.7791     4.4602     3.1769	F	1	noname	-0.1992
46	F8    -2.7341     3.1909     4.9842	F	1	noname	-0.1992
47	F9    -4.4285     1.3354     3.3462	F	1	noname	-0.1925
48	F10    -4.5606     2.9431     1.8895	F	1	noname	-0.1925
49	F11    -5.3556     2.8979     5.3848	F	1	noname	-0.1922
50	F12    -6.6909     2.7085     3.6756	F	1	noname	-0.1922
51	H17     1.0729    -0.5309     1.8992	H	1	noname	0.0572
52	H18    -1.8682    10.1456     4.4729	H	1	noname	0.0572
53	H19    -0.2474    11.7871     2.7325	H	1	noname	0.0534
54	H20    -1.4287    12.3222     3.8439	H	1	noname	0.0534
55	H21    -0.8023    -2.0624     3.4739	H	1	noname	0.0534
56	H22     0.2159    -2.6376     2.2296	H	1	noname	0.0534
57	C23    -4.5501    10.2111    -1.1354	C.3	1	noname	0.3844
58	C24    -3.5024    10.6892    -2.2193	C.3	1	noname	0.3846
59	C25    -5.7644     4.8822     4.0583	C.3	1	noname	0.3844
60	C26    -7.0176     5.4540     4.8376	C.3	1	noname	0.3846
61	F13    -4.5811    11.1424    -0.1188	F	1	noname	-0.1922
62	F14    -5.8179    10.3434    -1.6678	F	1	noname	-0.1922
63	F15    -3.7680    12.0162    -2.4885	F	1	noname	-0.1922
64	F16    -2.2619    10.7132    -1.6375	F	1	noname	-0.1922
65	F17    -5.8733     5.2688     2.7375	F	1	noname	-0.1922
66	F18    -4.6619     5.5569     4.5327	F	1	noname	-0.1922
67	F19    -8.1724     4.9565     4.2677	F	1	noname	-0.1922
68	F20    -7.0563     6.8085     4.5707	F	1	noname	-0.1922
69	C27    -3.4686     9.9349    -3.6040	C.3	1	noname	0.3873
70	C28    -2.4642    10.4422    -4.7129	C.3	1	noname	0.4091
71	C29    -7.0612     5.2276     6.4019	C.3	1	noname	0.3873
72	C30    -7.9177     6.2240     7.2681	C.3	1	noname	0.4091
73	F21    -4.7348    10.0065    -4.1507	F	1	noname	-0.1921
74	F22    -3.2370     8.5937    -3.4204	F	1	noname	-0.1921
75	F23    -2.7253     9.7320    -5.8706	F	1	noname	-0.1889
76	F24    -2.7330    11.7542    -5.0392	F	1	noname	-0.1889
77	F25    -5.7852     5.2837     6.9233	F	1	noname	-0.1921
78	F26    -7.5012     3.9475     6.6627	F	1	noname	-0.1921
79	F27    -7.3700     7.4878     7.2064	F	1	noname	-0.1889
80	F28    -7.7998     5.8575     8.5956	F	1	noname	-0.1889
81	C31    -9.4412     6.3189     6.9437	C.3	1	noname	0.4597
82	C32    -0.9293    10.3050    -4.4421	C.3	1	noname	0.4597
83	F29   -10.0562     5.0904     7.0140	F	1	noname	-0.1647
84	F30    -9.6871     6.8636     5.7067	F	1	noname	-0.1647
85	F31    -0.5875     9.0408    -4.0272	F	1	noname	-0.1647
86	F32    -0.4684    11.2078    -3.5169	F	1	noname	-0.1647
87	F33   -10.0751     7.1433     7.8453	F	1	noname	-0.1647
88	F34    -0.2028    10.5566    -5.5843	F	1	noname	-0.1647
@<TRIPOS>BOND
1	2	1	1
2	2	3	1
3	3	4	1
4	5	4	1
5	5	1	1
6	6	7	1
7	7	8	1
8	9	8	1
9	9	10	1
10	6	10	1
11	5	11	1
12	7	12	1
13	11	12	2
14	3	13	1
15	13	14	1
16	14	15	1
17	6	16	1
18	16	17	1
19	17	18	1
20	9	19	1
21	2	20	1
22	20	21	2
23	19	22	2
24	1	23	1
25	1	24	1
26	2	25	1
27	3	26	1
28	4	27	1
29	4	28	1
30	5	29	1
31	6	30	1
32	7	31	1
33	8	32	1
34	8	33	1
35	9	34	1
36	10	35	1
37	10	36	1
38	11	37	1
39	12	38	1
40	13	39	1
41	13	40	1
42	14	41	1
43	14	42	1
44	15	43	1
45	15	44	1
46	16	45	1
47	16	46	1
48	17	47	1
49	17	48	1
50	18	49	1
51	18	50	1
52	19	51	1
53	20	52	1
54	21	53	1
55	21	54	1
56	22	55	1
57	22	56	1
58	15	57	1
59	57	58	1
60	18	59	1
61	59	60	1
62	57	61	1
63	57	62	1
64	58	63	1
65	58	64	1
66	59	65	1
67	59	66	1
68	60	67	1
69	60	68	1
70	58	69	1
71	69	70	1
72	60	71	1
73	71	72	1
74	69	73	1
75	69	74	1
76	70	75	1
77	70	76	1
78	71	77	1
79	71	78	1
80	72	79	1
81	72	80	1
82	81	83	1
83	81	84	1
84	82	85	1
85	82	86	1
86	81	87	1
87	82	88	1
88	82	70	1
89	81	72	1
@<TRIPOS>SUBSTRUCTURE
1	noname	1
