@<TRIPOS>MOLECULE

40 41 1
SMALL
USER_CHARGES
@<TRIPOS>ATOM
1	C1     1.9228     6.8729    -2.4350	C.3	1	noname	-0.0406
2	C2     2.6249     8.2014    -2.0662	C.3	1	noname	-0.0230
3	C3     1.9383     9.2212    -3.0045	C.3	1	noname	-0.0464
4	C4     0.4861     8.7262    -3.1654	C.3	1	noname	-0.0464
5	C5     0.4354     7.2653    -2.6298	C.3	1	noname	-0.0227
6	C6    -3.0741     4.5474    -3.9625	C.3	1	noname	-0.0464
7	C7    -2.3728     5.7142    -4.6896	C.3	1	noname	-0.0227
8	C8    -3.5302     6.4085    -5.4442	C.3	1	noname	-0.0406
9	C9    -4.3933     5.2325    -5.9683	C.3	1	noname	-0.0230
10	C10    -4.2173     4.1087    -4.9050	C.3	1	noname	-0.0464
11	C11    -0.3278     6.3620    -3.4859	C.2	1	noname	-0.0851
12	C12    -1.6174     6.5835    -3.7945	C.2	1	noname	-0.0851
13	C13    -5.7765     5.5910    -6.2722	C.2	1	noname	-0.0935
14	C14     4.0803     8.1679    -2.1703	C.2	1	noname	-0.0935
15	C15     4.8524     9.2228    -1.8814	C.2	1	noname	-0.0978
16	C16    -6.6579     4.7122    -6.7672	C.2	1	noname	-0.0978
17	H1     2.3428     6.4726    -3.3657	H	1	noname	0.0278
18	H2     2.0396     6.1246    -1.6430	H	1	noname	0.0278
19	H3     2.3630     8.4460    -1.0291	H	1	noname	0.0346
20	H4     2.4303     9.2425    -3.9840	H	1	noname	0.0273
21	H5     0.1994     8.7966    -4.2207	H	1	noname	0.0273
22	H6    -0.1984     9.3531    -2.5862	H	1	noname	0.0273
23	H7    -0.0327     7.2631    -1.6358	H	1	noname	0.0346
24	H8    -3.4915     4.8739    -3.0024	H	1	noname	0.0273
25	H9    -1.6948     5.2971    -5.4461	H	1	noname	0.0346
26	H10    -4.1065     7.0403    -4.7575	H	1	noname	0.0278
27	H11    -3.1553     7.0271    -6.2684	H	1	noname	0.0278
28	H12    -3.9311     4.8975    -6.9067	H	1	noname	0.0346
29	H13    -5.1283     3.9384    -4.3234	H	1	noname	0.0273
30	H14    -3.9512     3.1719    -5.4047	H	1	noname	0.0273
31	H15     0.1239     5.5577    -3.8596	H	1	noname	0.0575
32	H16    -2.0778     7.3733    -3.3971	H	1	noname	0.0575
33	H17    -6.0870     6.5251    -6.1265	H	1	noname	0.0572
34	H18     4.5301     7.3278    -2.4568	H	1	noname	0.0572
35	H19     4.4545    10.0863    -1.5952	H	1	noname	0.0534
36	H20     5.8406     9.1539    -1.9486	H	1	noname	0.0534
37	H21    -6.4028     3.7650    -6.9199	H	1	noname	0.0534
38	H22    -7.5814     4.9997    -6.9899	H	1	noname	0.0534
39	H23    -2.3756     3.7271    -3.7773	H	1	noname	0.0273
40	H24     1.9607    10.2284    -2.5806	H	1	noname	0.0273
@<TRIPOS>BOND
1	1	2	1
2	2	3	1
3	3	4	1
4	4	5	1
5	1	5	1
6	6	7	1
7	7	8	1
8	8	9	1
9	9	10	1
10	6	10	1
11	5	11	1
12	7	12	1
13	11	12	2
14	9	13	1
15	2	14	1
16	14	15	2
17	13	16	2
18	1	17	1
19	1	18	1
20	2	19	1
21	3	20	1
22	4	21	1
23	4	22	1
24	5	23	1
25	6	24	1
26	7	25	1
27	8	26	1
28	8	27	1
29	9	28	1
30	10	29	1
31	10	30	1
32	11	31	1
33	12	32	1
34	13	33	1
35	14	34	1
36	15	35	1
37	15	36	1
38	16	37	1
39	16	38	1
40	6	39	1
41	3	40	1
@<TRIPOS>SUBSTRUCTURE
1	noname	1
