@<TRIPOS>MOLECULE
*****
76 77 1
SMALL
USER_CHARGES
@<TRIPOS>ATOM
1	C1    -2.3564    -5.3099     0.6561	C.3	1	noname	-0.0401
2	C2    -3.7993    -5.7458     0.2711	C.3	1	noname	-0.0142
3	C3    -4.5989    -4.3988     0.0813	C.3	1	noname	0.0360
4	C4    -3.6305    -3.2949     0.5882	C.3	1	noname	-0.0375
5	C5    -2.5181    -3.9746     1.4231	C.3	1	noname	-0.0222
6	C6    -0.2824     0.1035     0.7485	C.3	1	noname	0.0360
7	C7    -0.1686    -0.9756     1.8774	C.3	1	noname	-0.0139
8	C8     0.0044    -0.1279     3.1607	C.3	1	noname	-0.0401
9	C9     0.9672     1.0094     2.7386	C.3	1	noname	-0.0225
10	C10     0.6934     1.2203     1.2217	C.3	1	noname	-0.0376
11	C11    -1.3020    -3.1631     1.5304	C.2	1	noname	-0.0849
12	C12    -1.3209    -1.8749     1.9274	C.2	1	noname	-0.0847
13	C13    -5.2794    -4.0777    -1.3120	C.3	1	noname	0.3197
14	C14    -6.1059    -2.7357    -1.3858	C.3	1	noname	0.3782
15	C15    -6.8975    -2.3989    -2.7150	C.3	1	noname	0.3843
16	C16    -0.0495    -0.4352    -0.7168	C.3	1	noname	0.3197
17	C17    -0.2046     0.6005    -1.8944	C.3	1	noname	0.3782
18	C18     0.1579     0.0994    -3.3533	C.3	1	noname	0.3843
19	C19     0.8776     2.2278     3.5409	C.2	1	noname	-0.0934
20	C20    -3.7615    -6.6482    -0.9336	C.2	1	noname	-0.0931
21	C21    -4.4287    -7.8903    -0.9289	C.2	1	noname	-0.0977
22	C22     1.7374     3.2454     3.3987	C.2	1	noname	-0.0978
23	H1    -1.7382    -5.1517    -0.2355	H	1	noname	0.0278
24	H2    -1.8680    -6.0680     1.2750	H	1	noname	0.0278
25	H3    -4.2133    -6.1893     1.2411	H	1	noname	0.0351
26	H4    -5.4252    -4.4343     0.8020	H	1	noname	0.0372
27	H5    -3.1717    -2.7831    -0.2636	H	1	noname	0.0278
28	H6    -4.1683    -2.5582     1.1941	H	1	noname	0.0278
29	H7    -2.8901    -4.1869     2.4326	H	1	noname	0.0346
30	H8    -1.2955     0.5289     0.7908	H	1	noname	0.0372
31	H9     0.7545    -1.5506     1.7339	H	1	noname	0.0351
32	H10    -0.9601     0.2801     3.4829	H	1	noname	0.0278
33	H11     0.4258    -0.7186     3.9797	H	1	noname	0.0278
34	H12     1.9853     0.6178     2.8539	H	1	noname	0.0346
35	H13     0.2521     2.2025     1.0200	H	1	noname	0.0278
36	H14     1.6447     1.1647     0.6854	H	1	noname	0.0278
37	H15    -0.4347    -3.5712     1.2638	H	1	noname	0.0575
38	H16    -2.1862    -1.4841     2.2194	H	1	noname	0.0575
39	F1    -4.3278    -4.0653    -2.3088	F	1	noname	-0.1992
40	F2    -6.1287    -5.1268    -1.5700	F	1	noname	-0.1992
41	F3    -5.2398    -1.6786    -1.1916	F	1	noname	-0.1925
42	F4    -6.9411    -2.6747    -0.2983	F	1	noname	-0.1925
43	F5    -7.3547    -1.0983    -2.6332	F	1	noname	-0.1922
44	F6    -5.9851    -2.3381    -3.7505	F	1	noname	-0.1922
45	F7     1.1872    -1.0406    -0.7818	F	1	noname	-0.1992
46	F8    -0.9857    -1.4216    -0.9118	F	1	noname	-0.1992
47	F9     0.5923     1.6987    -1.6431	F	1	noname	-0.1925
48	F10    -1.4903     1.1002    -1.8768	F	1	noname	-0.1925
49	F11    -0.0175     1.1713    -4.2060	F	1	noname	-0.1922
50	F12     1.5092    -0.1719    -3.3837	F	1	noname	-0.1922
51	H17     0.1531     2.3217     4.2167	H	1	noname	0.0572
52	H18    -3.2755    -6.3762    -1.7564	H	1	noname	0.0572
53	H19    -4.9801    -8.3027    -0.1210	H	1	noname	0.0534
54	H20    -4.4732    -8.5791    -1.7356	H	1	noname	0.0534
55	H21     2.4742     3.2041     2.7352	H	1	noname	0.0534
56	H22     1.6505     4.0607     3.9564	H	1	noname	0.0534
57	C23    -8.1088    -3.2916    -3.1918	C.3	1	noname	0.3873
58	C24    -9.3098    -3.5530    -2.2065	C.3	1	noname	0.4091
59	C25    -0.6307    -1.1350    -3.9418	C.3	1	noname	0.3873
60	C26    -0.4938    -1.4433    -5.4838	C.3	1	noname	0.4091
61	F13    -7.6308    -4.5022    -3.6474	F	1	noname	-0.1921
62	F14    -8.6269    -2.7292    -4.3447	F	1	noname	-0.1921
63	F15   -10.2384    -4.3323    -2.8704	F	1	noname	-0.1889
64	F16    -8.9050    -4.3424    -1.1539	F	1	noname	-0.1889
65	F17    -1.9737    -0.9523    -3.6839	F	1	noname	-0.1921
66	F18    -0.2705    -2.2847    -3.2733	F	1	noname	-0.1921
67	F19    -1.3228    -2.5105    -5.7796	F	1	noname	-0.1889
68	F20    -0.9923    -0.3949    -6.2291	F	1	noname	-0.1889
69	C27     0.9307    -1.8009    -6.0242	C.3	1	noname	0.4597
70	F21     1.7619    -0.7076    -6.0632	F	1	noname	-0.1647
71	F22     1.5410    -2.7823    -5.2797	F	1	noname	-0.1647
72	F23     0.8694    -2.2737    -7.3164	F	1	noname	-0.1647
73	C28   -10.0734    -2.3035    -1.6524	C.3	1	noname	0.4597
74	F24    -9.3339    -1.5536    -0.7733	F	1	noname	-0.1647
75	F25   -10.4964    -1.4665    -2.6582	F	1	noname	-0.1647
76	F26   -11.1896    -2.6903    -0.9467	F	1	noname	-0.1647
@<TRIPOS>BOND
1	2	1	1
2	2	3	1
3	3	4	1
4	5	4	1
5	5	1	1
6	6	7	1
7	7	8	1
8	9	8	1
9	9	10	1
10	6	10	1
11	5	11	1
12	7	12	1
13	11	12	2
14	3	13	1
15	13	14	1
16	14	15	1
17	6	16	1
18	16	17	1
19	17	18	1
20	9	19	1
21	2	20	1
22	20	21	2
23	19	22	2
24	1	23	1
25	1	24	1
26	2	25	1
27	3	26	1
28	4	27	1
29	4	28	1
30	5	29	1
31	6	30	1
32	7	31	1
33	8	32	1
34	8	33	1
35	9	34	1
36	10	35	1
37	10	36	1
38	11	37	1
39	12	38	1
40	13	39	1
41	13	40	1
42	14	41	1
43	14	42	1
44	15	43	1
45	15	44	1
46	16	45	1
47	16	46	1
48	17	47	1
49	17	48	1
50	18	49	1
51	18	50	1
52	19	51	1
53	20	52	1
54	21	53	1
55	21	54	1
56	22	55	1
57	22	56	1
58	15	57	1
59	57	58	1
60	18	59	1
61	59	60	1
62	57	61	1
63	57	62	1
64	58	63	1
65	58	64	1
66	59	65	1
67	59	66	1
68	60	67	1
69	60	68	1
70	69	70	1
71	69	71	1
72	69	72	1
73	73	74	1
74	73	75	1
75	73	76	1
76	69	60	1
77	58	73	1
@<TRIPOS>SUBSTRUCTURE
1	noname	1
