@<TRIPOS>MOLECULE

64 65 1
SMALL
USER_CHARGES
@<TRIPOS>ATOM
1	C1     2.0890     7.6089     1.8104	C.3	1	noname	-0.0401
2	C2     2.1941     8.3584     0.4460	C.3	1	noname	-0.0142
3	C3     1.5752     7.4008    -0.6424	C.3	1	noname	0.0360
4	C4     1.0931     6.1798     0.1905	C.3	1	noname	-0.0375
5	C5     2.0023     6.1129     1.4391	C.3	1	noname	-0.0222
6	C6    -0.9547     2.9081     3.0454	C.3	1	noname	0.0360
7	C7     0.5929     3.0407     3.2307	C.3	1	noname	-0.0139
8	C8     1.0786     1.5762     3.1066	C.3	1	noname	-0.0401
9	C9     0.0433     0.7521     3.9053	C.3	1	noname	-0.0225
10	C10    -1.2828     1.5478     3.7322	C.3	1	noname	-0.0376
11	C11     1.4947     5.2239     2.4788	C.2	1	noname	-0.0849
12	C12     1.2336     3.9227     2.2561	C.2	1	noname	-0.0847
13	C13     2.5386     7.0273    -1.8440	C.3	1	noname	0.3198
14	C14     1.8626     6.3165    -3.0798	C.3	1	noname	0.3811
15	C15     2.7593     6.0573    -4.3579	C.3	1	noname	0.4088
16	C16    -1.8159     4.1413     3.5259	C.3	1	noname	0.3198
17	C17    -3.3652     4.0631     3.2570	C.3	1	noname	0.3811
18	C18    -4.2539     5.2674     3.7627	C.3	1	noname	0.4088
19	C19    -0.0240    -0.6532     3.5059	C.2	1	noname	-0.0934
20	C20     1.5771     9.6889     0.4816	C.2	1	noname	-0.0931
21	C21     1.7986    10.6339    -0.4398	C.2	1	noname	-0.0977
22	C22    -0.8162    -1.5478     4.1079	C.2	1	noname	-0.0978
23	H1     1.1880     7.9030     2.3619	H	1	noname	0.0278
24	H2     2.9576     7.8102     2.4434	H	1	noname	0.0278
25	H3     3.2660     8.4936     0.2574	H	1	noname	0.0351
26	H4     0.6825     7.8719    -1.0738	H	1	noname	0.0372
27	H5     0.0498     6.3312     0.4892	H	1	noname	0.0278
28	H6     1.1451     5.2427    -0.3539	H	1	noname	0.0278
29	H7     2.9996     5.7639     1.1559	H	1	noname	0.0346
30	H8    -1.1436     2.7773     1.9710	H	1	noname	0.0372
31	H9     0.8192     3.3814     4.2482	H	1	noname	0.0351
32	H10     1.0762     1.2651     2.0547	H	1	noname	0.0278
33	H11     2.0883     1.4470     3.5063	H	1	noname	0.0278
34	H12     0.3383     0.7861     4.9622	H	1	noname	0.0346
35	H13    -2.0052     1.0001     3.1185	H	1	noname	0.0278
36	H14    -1.7274     1.7017     4.7191	H	1	noname	0.0278
37	H15     1.3101     5.6049     3.3783	H	1	noname	0.0575
38	H16     1.4451     3.5443     1.3608	H	1	noname	0.0575
39	F1     3.5618     6.2571    -1.3482	F	1	noname	-0.1992
40	F2     3.1328     8.1784    -2.3091	F	1	noname	-0.1992
41	F3     0.7711     7.0792    -3.4555	F	1	noname	-0.1924
42	F4     1.3161     5.1049    -2.7238	F	1	noname	-0.1924
43	F5     3.0687     7.3147    -4.9183	F	1	noname	-0.1890
44	F6     1.8715     5.5488    -5.3363	F	1	noname	-0.1890
45	F7    -1.3557     5.2402     2.8457	F	1	noname	-0.1992
46	F8    -1.5771     4.3698     4.8634	F	1	noname	-0.1992
47	F9    -3.8705     2.9246     3.8466	F	1	noname	-0.1924
48	F10    -3.5780     3.8813     1.9062	F	1	noname	-0.1924
49	F11    -4.2087     5.3418     5.1392	F	1	noname	-0.1890
50	F12    -5.5734     4.9724     3.4736	F	1	noname	-0.1890
51	H17     0.5386    -0.9747     2.7510	H	1	noname	0.0572
52	H18     0.9370     9.9081     1.2106	H	1	noname	0.0572
53	H19     2.4205    10.4806    -1.1936	H	1	noname	0.0534
54	H20     1.3359    11.5090    -0.3806	H	1	noname	0.0534
55	H21    -1.3992    -1.2874     4.8669	H	1	noname	0.0534
56	H22    -0.8301    -2.4909     3.7982	H	1	noname	0.0534
57	C23    -3.9623     6.6944     3.1878	C.3	1	noname	0.4597
58	F13    -2.8125     7.2553     3.6919	F	1	noname	-0.1647
59	F14    -3.8821     6.6881     1.8155	F	1	noname	-0.1647
60	F15    -4.9636     7.5777     3.5218	F	1	noname	-0.1647
61	C24     4.0550     5.1077    -4.0925	C.3	1	noname	0.4597
62	F16     5.0955     5.7979    -3.5188	F	1	noname	-0.1647
63	F17     3.7724     4.0057    -3.3238	F	1	noname	-0.1647
64	F18     4.5128     4.6432    -5.3011	F	1	noname	-0.1647
@<TRIPOS>BOND
1	2	1	1
2	2	3	1
3	3	4	1
4	5	4	1
5	5	1	1
6	6	7	1
7	7	8	1
8	9	8	1
9	9	10	1
10	6	10	1
11	5	11	1
12	7	12	1
13	11	12	2
14	3	13	1
15	13	14	1
16	14	15	1
17	6	16	1
18	16	17	1
19	17	18	1
20	9	19	1
21	2	20	1
22	20	21	2
23	19	22	2
24	1	23	1
25	1	24	1
26	2	25	1
27	3	26	1
28	4	27	1
29	4	28	1
30	5	29	1
31	6	30	1
32	7	31	1
33	8	32	1
34	8	33	1
35	9	34	1
36	10	35	1
37	10	36	1
38	11	37	1
39	12	38	1
40	13	39	1
41	13	40	1
42	14	41	1
43	14	42	1
44	15	43	1
45	15	44	1
46	16	45	1
47	16	46	1
48	17	47	1
49	17	48	1
50	18	49	1
51	18	50	1
52	19	51	1
53	20	52	1
54	21	53	1
55	21	54	1
56	22	55	1
57	22	56	1
58	57	58	1
59	57	59	1
60	57	60	1
61	61	62	1
62	61	63	1
63	61	64	1
64	15	61	1
65	57	18	1
@<TRIPOS>SUBSTRUCTURE
1	noname	1
