@<TRIPOS>MOLECULE
*****
100 101 1
SMALL
USER_CHARGES
@<TRIPOS>ATOM
1	C1    -0.9533    -4.7451    -1.2630	C.3	1	noname	-0.0401
2	C2    -2.2691    -5.4334    -1.8297	C.3	1	noname	-0.0142
3	C3    -3.5265    -4.3496    -1.8329	C.3	1	noname	0.0360
4	C4    -2.8699    -3.2977    -0.7528	C.3	1	noname	-0.0375
5	C5    -1.4909    -3.8069    -0.1440	C.3	1	noname	-0.0222
6	C6    -0.3478     0.6602     0.5133	C.3	1	noname	0.0360
7	C7     0.0158    -0.6183     1.3403	C.3	1	noname	-0.0139
8	C8     0.0022    -0.1042     2.7975	C.3	1	noname	-0.0401
9	C9     0.7012     1.2776     2.7177	C.3	1	noname	-0.0225
10	C10     0.4130     1.7824     1.2730	C.3	1	noname	-0.0376
11	C11    -0.5653    -2.7371     0.2238	C.2	1	noname	-0.0849
12	C12    -0.8660    -1.7626     1.1025	C.2	1	noname	-0.0847
13	C13    -3.9559    -3.7070    -3.2017	C.3	1	noname	0.3197
14	C14    -4.9969    -2.5199    -3.1128	C.3	1	noname	0.3782
15	C15    -5.7266    -2.0510    -4.4393	C.3	1	noname	0.3842
16	C16    -0.0617     0.5547    -1.0323	C.3	1	noname	0.3197
17	C17    -0.3381     1.8136    -1.9347	C.3	1	noname	0.3782
18	C18     0.2243     1.7607    -3.4126	C.3	1	noname	0.3842
19	C19     0.3266     2.2131     3.7756	C.2	1	noname	-0.0934
20	C20    -1.9507    -6.2046    -3.0655	C.2	1	noname	-0.0931
21	C21    -2.7289    -7.2008    -3.5076	C.2	1	noname	-0.0977
22	C22     0.8478     3.4424     3.8772	C.2	1	noname	-0.0978
23	H1    -0.4735    -4.1590    -2.0554	H	1	noname	0.0278
24	H2    -0.2331    -5.4695    -0.8692	H	1	noname	0.0278
25	H3    -2.4223    -6.2527    -1.0715	H	1	noname	0.0351
26	H4    -4.3903    -4.8341    -1.3701	H	1	noname	0.0372
27	H5    -2.6369    -2.2933    -1.1802	H	1	noname	0.0278
28	H6    -3.5288    -3.0609     0.1224	H	1	noname	0.0278
29	H7    -1.6959    -4.4158     0.7452	H	1	noname	0.0346
30	H8    -1.4204     0.8565     0.6437	H	1	noname	0.0372
31	H9     1.0511    -0.9116     1.1234	H	1	noname	0.0351
32	H10    -1.0291    -0.0008     3.1527	H	1	noname	0.0278
33	H11     0.5390    -0.7834     3.4670	H	1	noname	0.0278
34	H12     1.7798     1.0991     2.8091	H	1	noname	0.0346
35	H13    -0.1883     2.6973     1.2685	H	1	noname	0.0278
36	H14     1.3652     2.0020     0.7810	H	1	noname	0.0278
37	H15     0.3168    -2.7044    -0.2360	H	1	noname	0.0575
38	H16    -1.7455    -1.7892     1.5671	H	1	noname	0.0575
39	F1    -2.8336    -3.2922    -3.8852	F	1	noname	-0.1992
40	F2    -4.4922    -4.7375    -3.9272	F	1	noname	-0.1992
41	F3    -4.3369    -1.4064    -2.6316	F	1	noname	-0.1925
42	F4    -5.9160    -2.7765    -2.1231	F	1	noname	-0.1925
43	F5    -6.3556    -0.8464    -4.1886	F	1	noname	-0.1922
44	F6    -4.7497    -1.7000    -5.3509	F	1	noname	-0.1922
45	F7     1.2346     0.1222    -1.2071	F	1	noname	-0.1992
46	F8    -0.8939    -0.4328    -1.4959	F	1	noname	-0.1992
47	F9     0.2037     2.9369    -1.3514	F	1	noname	-0.1925
48	F10    -1.6942     2.0672    -1.9477	F	1	noname	-0.1925
49	F11    -0.0757     2.9701    -4.0042	F	1	noname	-0.1922
50	F12     1.5981     1.7418    -3.3481	F	1	noname	-0.1922
51	H17    -0.3401     1.9345     4.4582	H	1	noname	0.0572
52	H18    -1.1423    -5.9737    -3.5970	H	1	noname	0.0572
53	H19    -3.5487    -7.4650    -3.0148	H	1	noname	0.0534
54	H20    -2.4940    -7.6911    -4.3380	H	1	noname	0.0534
55	H21     1.5166     3.7727     3.2228	H	1	noname	0.0534
56	H22     0.5700     4.0442     4.6150	H	1	noname	0.0534
57	C23    -6.7661    -2.9836    -5.1835	C.3	1	noname	0.3844
58	C24    -7.9200    -3.6854    -4.3664	C.3	1	noname	0.3845
59	C25    -0.2740     0.6045    -4.3609	C.3	1	noname	0.3844
60	C26     0.2280     0.6195    -5.8584	C.3	1	noname	0.3845
61	F13    -6.0730    -3.9532    -5.8800	F	1	noname	-0.1922
62	F14    -7.3385    -2.2580    -6.2104	F	1	noname	-0.1922
63	F15    -8.5731    -4.5325    -5.2388	F	1	noname	-0.1922
64	F16    -7.3322    -4.5450    -3.4783	F	1	noname	-0.1922
65	F17    -1.6540     0.6324    -4.3648	F	1	noname	-0.1922
66	F18     0.0575    -0.6334    -3.8603	F	1	noname	-0.1922
67	F19    -0.4896    -0.3618    -6.5132	F	1	noname	-0.1922
68	F20    -0.1953     1.7873    -6.4584	F	1	noname	-0.1922
69	C27    -9.0101    -2.7704    -3.6760	C.3	1	noname	0.3845
70	C28   -10.1886    -3.4735    -2.8828	C.3	1	noname	0.3846
71	C29    -9.8707    -4.1148    -1.4756	C.3	1	noname	0.3873
72	C30   -11.0815    -4.6394    -0.6126	C.3	1	noname	0.4091
73	C31     1.7813     0.4131    -6.1184	C.3	1	noname	0.3845
74	C32     2.2217    -0.3041    -7.4547	C.3	1	noname	0.3846
75	C33     1.8899     0.4277    -8.8054	C.3	1	noname	0.3873
76	C34     2.2915    -0.3076   -10.1404	C.3	1	noname	0.4091
77	F21    -9.5786    -2.0052    -4.6760	F	1	noname	-0.1922
78	F22    -8.4291    -1.8439    -2.8469	F	1	noname	-0.1922
79	F23   -11.1760    -2.5295    -2.6795	F	1	noname	-0.1922
80	F24   -10.7577    -4.4138    -3.7089	F	1	noname	-0.1922
81	F25    -9.2020    -3.1881    -0.7022	F	1	noname	-0.1921
82	F26    -8.9967    -5.1650    -1.6128	F	1	noname	-0.1921
83	F27   -10.5760    -5.1260     0.5777	F	1	noname	-0.1889
84	F28   -11.8881    -3.5881    -0.2350	F	1	noname	-0.1889
85	F29     2.3449    -0.3343    -5.1052	F	1	noname	-0.1922
86	F30     2.4253     1.6278    -6.0192	F	1	noname	-0.1922
87	F31     3.5882    -0.5049    -7.4134	F	1	noname	-0.1922
88	F32     1.6941    -1.5741    -7.4384	F	1	noname	-0.1922
89	F33     2.5396     1.6469    -8.7893	F	1	noname	-0.1921
90	F34     0.5508     0.7362    -8.8834	F	1	noname	-0.1921
91	F35     2.0149     0.5528   -11.1864	F	1	noname	-0.1889
92	F36     3.6573    -0.4902   -10.1890	F	1	noname	-0.1889
93	C35     1.5926    -1.6746   -10.4568	C.3	1	noname	0.4597
94	C36   -11.9761    -5.7602    -1.2335	C.3	1	noname	0.4597
95	F37     2.1483    -2.7288    -9.7738	F	1	noname	-0.1647
96	F38     0.2460    -1.6546   -10.1817	F	1	noname	-0.1647
97	F39   -12.8032    -5.2807    -2.2184	F	1	noname	-0.1647
98	F40   -11.2313    -6.7893    -1.7554	F	1	noname	-0.1647
99	F41     1.7286    -2.0044   -11.7849	F	1	noname	-0.1647
100	F42   -12.8091    -6.3110    -0.2883	F	1	noname	-0.1647
@<TRIPOS>BOND
1	2	1	1
2	2	3	1
3	3	4	1
4	5	4	1
5	5	1	1
6	6	7	1
7	7	8	1
8	9	8	1
9	9	10	1
10	6	10	1
11	5	11	1
12	7	12	1
13	11	12	2
14	3	13	1
15	13	14	1
16	14	15	1
17	6	16	1
18	16	17	1
19	17	18	1
20	9	19	1
21	2	20	1
22	20	21	2
23	19	22	2
24	1	23	1
25	1	24	1
26	2	25	1
27	3	26	1
28	4	27	1
29	4	28	1
30	5	29	1
31	6	30	1
32	7	31	1
33	8	32	1
34	8	33	1
35	9	34	1
36	10	35	1
37	10	36	1
38	11	37	1
39	12	38	1
40	13	39	1
41	13	40	1
42	14	41	1
43	14	42	1
44	15	43	1
45	15	44	1
46	16	45	1
47	16	46	1
48	17	47	1
49	17	48	1
50	18	49	1
51	18	50	1
52	19	51	1
53	20	52	1
54	21	53	1
55	21	54	1
56	22	55	1
57	22	56	1
58	15	57	1
59	57	58	1
60	18	59	1
61	59	60	1
62	57	61	1
63	57	62	1
64	58	63	1
65	58	64	1
66	59	65	1
67	59	66	1
68	60	67	1
69	60	68	1
70	58	69	1
71	69	70	1
72	70	71	1
73	71	72	1
74	60	73	1
75	73	74	1
76	74	75	1
77	75	76	1
78	69	77	1
79	69	78	1
80	70	79	1
81	70	80	1
82	71	81	1
83	71	82	1
84	72	83	1
85	72	84	1
86	73	85	1
87	73	86	1
88	74	87	1
89	74	88	1
90	75	89	1
91	75	90	1
92	76	91	1
93	76	92	1
94	93	95	1
95	93	96	1
96	94	97	1
97	94	98	1
98	93	99	1
99	94	100	1
100	76	93	1
101	72	94	1
@<TRIPOS>SUBSTRUCTURE
1	noname	1
